---- qbsp / ericw-tools v0.18.1 ----
Input file: desertkeepentrence.map
Output file: desertkeepentrence.bsp

---- LoadMapFile ----
         4037 faces
          250 brushes
           44 entities
           25 unique texnames
          585 texinfo

Opened WAD: C:/Users/EZ/Downloads/quake-leveldesign-starterkit-master/wads/prototype_1_2.wad
Opened WAD: C:/Users/EZ/Downloads/quake-leveldesign-starterkit-master/wads/START.WAD
Processing hull 0...
---- Brush_LoadEntity ----
          240 brushes
         2924 planes
---- CSGFaces ----
         3967 brushfaces
        16842 csgfaces
         9073 mergedfaces
---- SolidBSP ----
         4153 split nodes
          477 solid leafs
         3574 empty leafs
          103 water leafs
            0 detail leafs
            0 detail illusionary leafs
            0 detail fence leafs
            0 illusionary visblocker leafs
        29940 leaffaces
        11962 nodefaces
---- Portalize ----
         3677 vis leafs
         3677 vis clusters
         8893 vis portals
---- FillOutside ----
          353 outleafs
---- MergeAll ----
         8626 mergefaces
---- SolidBSP ----
         3016 split nodes
          246 solid leafs
         2709 empty leafs
           62 water leafs
            0 detail leafs
            0 detail illusionary leafs
            0 detail fence leafs
            0 illusionary visblocker leafs
        31387 leaffaces
         8827 nodefaces
---- Portalize ----
         2771 vis leafs
         2771 vis clusters
         5884 vis portals
---- Tjunc ----
         8850 world edges
        29978 edge points
        11454 edges added by tjunctions
            1 faces added by tjunctions
---- MakeFaceEdges ----
---- GrowRegions ----
Processing hull 1...
Processing hull 2...
*** WARNING 16: Texture __TB_empty not found
---- WriteBSPFile ----
Wrote desertkeepentrence.bsp
         3571 planes            71420
        12053 vertexes         144636
         3080 nodes             73920
          320 texinfo           12800
         8896 faces            177920
         1309 clipnodes         10472
         2836 leafs             79408
        31473 marksurfaces      62946
        42430 surfedges        169720
        21216 edges             84864
           25 textures         310888
              lightdata             0
              visdata               0
              entdata            3279

16.865 seconds elapsed
Peak memory usage: 34690508 (33.1M)
