---- qbsp / ericw-tools v0.18.1 ----
Input file: desertkeepleveltwo.map
Output file: desertkeepleveltwo.bsp

---- LoadMapFile ----
         2037 faces
          161 brushes
          163 entities
           27 unique texnames
          354 texinfo

Opened WAD: C:/Users/EZ/Downloads/quake-leveldesign-starterkit-master/wads/prototype_1_2.wad
Opened WAD: C:/Users/EZ/Downloads/quake-leveldesign-starterkit-master/wads/START.WAD
Processing hull 0...
---- Brush_LoadEntity ----
          118 brushes
          160 planes
---- CSGFaces ----
          718 brushfaces
          695 csgfaces
          670 mergedfaces
---- SolidBSP ----
         1043 split nodes
          422 solid leafs
          620 empty leafs
            2 water leafs
            0 detail leafs
            0 detail illusionary leafs
            0 detail fence leafs
            0 illusionary visblocker leafs
         1547 leaffaces
         1467 nodefaces
---- Portalize ----
          622 vis leafs
          622 vis clusters
         1773 vis portals
---- FillOutside ----
          349 outleafs
---- MergeAll ----
          519 mergefaces
---- SolidBSP ----
          353 split nodes
          165 solid leafs
          187 empty leafs
            2 water leafs
            0 detail leafs
            0 detail illusionary leafs
            0 detail fence leafs
            0 illusionary visblocker leafs
          819 leaffaces
          622 nodefaces
---- Portalize ----
          189 vis leafs
          189 vis clusters
          631 vis portals
---- Tjunc ----
          710 world edges
         2258 edge points
          433 edges added by tjunctions
            0 faces added by tjunctions
---- MakeFaceEdges ----
---- GrowRegions ----
Processing hull 1...
Processing hull 2...
*** WARNING 16: Texture __TB_empty not found
---- WriteBSPFile ----
Wrote desertkeepleveltwo.bsp
         3664 planes            73280
         3298 vertexes          39576
         1672 nodes             40128
          294 texinfo           11760
         1941 faces             38820
         3705 clipnodes         29640
         1507 leafs             42196
         2138 marksurfaces       4276
        10346 surfedges         41384
         5174 edges             20696
           27 textures         234048
              lightdata             0
              visdata               0
              entdata           13710

1.606 seconds elapsed
Peak memory usage: 8260656 (7.9M)
