---- qbsp / ericw-tools v0.18.1 ----
Input file: desertkeeplevelfour.map
Output file: desertkeeplevelfour.bsp

---- LoadMapFile ----
         1391 faces
           58 brushes
           38 entities
           16 unique texnames
          195 texinfo

Opened WAD: C:/Users/EZ/Downloads/quake-leveldesign-starterkit-master/wads/prototype_1_2.wad
Opened WAD: C:/Users/EZ/Downloads/quake-leveldesign-starterkit-master/wads/START.WAD
Processing hull 0...
---- Brush_LoadEntity ----
           29 brushes
           76 planes
---- CSGFaces ----
          194 brushfaces
          210 csgfaces
          198 mergedfaces
---- SolidBSP ----
          273 split nodes
           82 solid leafs
          187 empty leafs
            5 water leafs
            0 detail leafs
            0 detail illusionary leafs
            0 detail fence leafs
            0 illusionary visblocker leafs
          603 leaffaces
          564 nodefaces
---- Portalize ----
          192 vis leafs
          192 vis clusters
          532 vis portals
---- FillOutside ----
          120 outleafs
---- MergeAll ----
          181 mergefaces
---- SolidBSP ----
           94 split nodes
           38 solid leafs
           54 empty leafs
            3 water leafs
            0 detail leafs
            0 detail illusionary leafs
            0 detail fence leafs
            0 illusionary visblocker leafs
          288 leaffaces
          226 nodefaces
---- Portalize ----
           57 vis leafs
           57 vis clusters
          188 vis portals
---- Tjunc ----
          239 world edges
          760 edge points
          172 edges added by tjunctions
            0 faces added by tjunctions
---- MakeFaceEdges ----
---- GrowRegions ----
Processing hull 1...
Processing hull 2...
*** WARNING 16: Texture __TB_empty not found
---- WriteBSPFile ----
Wrote desertkeeplevelfour.bsp
         3650 planes            73000
         2588 vertexes          31056
         1291 nodes             30984
          170 texinfo            6800
         1439 faces             28780
         2823 clipnodes         22584
         1255 leafs             35140
         1501 marksurfaces       3002
         8036 surfedges         32144
         4019 edges             16076
           16 textures         114012
              lightdata             0
              visdata               0
              entdata            5411

2.223 seconds elapsed
Peak memory usage: 4124058 (3.9M)
