---- qbsp / ericw-tools v0.18.1 ----
Input file: desertkeepmhall.map
Output file: desertkeepmhall.bsp

---- LoadMapFile ----
         2865 faces
           75 brushes
           30 entities
            9 unique texnames
          136 texinfo

Opened WAD: C:/Users/EZ/Downloads/quake-leveldesign-starterkit-master/wads/prototype_1_2.wad
Opened WAD: C:/Users/EZ/Downloads/quake-leveldesign-starterkit-master/wads/START.WAD
Processing hull 0...
---- Brush_LoadEntity ----
           66 brushes
         2639 planes
---- CSGFaces ----
         2806 brushfaces
        15149 csgfaces
         7952 mergedfaces
---- SolidBSP ----
         3124 split nodes
          131 solid leafs
         2993 empty leafs
            1 water leafs
            0 detail leafs
            0 detail illusionary leafs
            0 detail fence leafs
            0 illusionary visblocker leafs
        27301 leaffaces
         9754 nodefaces
---- Portalize ----
         2994 vis leafs
         2994 vis clusters
         6860 vis portals
---- FillOutside ----
           71 outleafs
---- MergeAll ----
         7910 mergefaces
---- SolidBSP ----
         2644 split nodes
           79 solid leafs
         2565 empty leafs
            1 water leafs
            0 detail leafs
            0 detail illusionary leafs
            0 detail fence leafs
            0 illusionary visblocker leafs
        33149 leaffaces
         7933 nodefaces
---- Portalize ----
         2566 vis leafs
         2566 vis clusters
         5237 vis portals
---- Tjunc ----
         7931 world edges
        26937 edge points
        10542 edges added by tjunctions
            1 faces added by tjunctions
---- MakeFaceEdges ----
---- GrowRegions ----
Processing hull 1...
Processing hull 2...
*** WARNING 16: Texture __TB_empty not found
---- WriteBSPFile ----
Wrote desertkeepmhall.bsp
         3033 planes            60660
        10840 vertexes         130080
         2697 nodes             64728
           64 texinfo            2560
         7991 faces            159820
          524 clipnodes          4192
         2620 leafs             73360
        33219 marksurfaces      66438
        37858 surfedges        151432
        18930 edges             75720
            9 textures          88360
              lightdata             0
              visdata               0
              entdata            2226

35.228 seconds elapsed
Peak memory usage: 28217144 (26.9M)
